/home/regulus/Documents/ATLAS/results/cmap/docking/02_clofibrate_CYP3A4_3NXU/reference_redocked.pdbqt
 OpenBabel08312612103D

 54 57  0  0  1  0  0  0  0  0999 V2000
   37.3460  -14.0190   30.1220 N   0  0  0  0  0  4  0  0  0  0  0  0
   36.9190  -12.7610   29.7200 C   0  0  0  0  0  0  0  0  0  0  0  0
   37.6280  -11.7890   29.6450 O   0  0  0  0  0  0  0  0  0  0  0  0
   36.6500  -14.7100   30.2150 H   0  0  0  0  0  0  0  0  0  0  0  0
   38.7490  -14.4400   30.4310 C   0  0  0  0  0  0  0  0  0  0  0  0
   39.2410  -15.3300   29.5820 C   0  0  0  0  0  2  0  0  0  0  0  0
   38.4470  -15.7820   28.3360 C   0  0  1  0  0  3  0  0  0  0  0  0
   39.3190  -16.9270   27.8800 C   0  0  0  0  0  0  0  0  0  0  0  0
   38.9510  -17.5920   26.4790 N   0  0  0  0  0  4  0  0  0  0  0  0
   38.3500  -18.8520   26.5530 C   0  0  0  0  0  0  0  0  0  0  0  0
   38.1640  -19.4490   27.8390 O   0  0  0  0  0  0  0  0  0  0  0  0
   39.1350  -17.1470   25.6210 H   0  0  0  0  0  0  0  0  0  0  0  0
   37.7340  -19.3980   25.5270 O   0  0  0  0  0  0  0  0  0  0  0  0
   36.4320  -18.7550   25.3350 C   0  0  0  0  0  2  0  0  0  0  0  0
   35.5500  -19.4420   25.9020 C   0  0  0  0  0  0  0  0  0  0  0  0
   34.6630  -19.3990   26.7400 C   0  0  0  0  0  3  0  0  0  0  0  0
   34.0690  -20.5610   26.9940 N   0  0  0  0  0  0  0  0  0  0  0  0
   34.4900  -21.6320   26.3580 C   0  0  0  0  0  3  0  0  0  0  0  0
   35.6730  -21.0590   25.4540 S   0  0  0  0  0  0  0  0  0  0  0  0
   40.8260  -16.7220   28.3140 C   0  0  0  0  0  2  0  0  0  0  0  0
   41.4100  -18.0390   28.5750 C   0  0  0  0  0  0  0  0  0  0  0  0
   40.9870  -18.7050   29.9050 C   0  0  0  0  0  3  0  0  0  0  0  0
   42.3210  -18.7110   27.6600 C   0  0  0  0  0  3  0  0  0  0  0  0
   41.5050  -20.0550   30.2620 C   0  0  0  0  0  3  0  0  0  0  0  0
   42.8320  -20.0450   28.0230 C   0  0  0  0  0  3  0  0  0  0  0  0
   42.4300  -20.7220   29.3200 C   0  0  0  0  0  3  0  0  0  0  0  0
   37.1550  -16.4680   28.8810 O   0  0  0  0  0  0  0  0  0  0  0  0
   37.3600  -16.9310   29.7080 H   0  0  0  0  0  0  0  0  0  0  0  0
   39.5250  -14.4020   31.9020 C   0  0  0  0  0  2  0  0  0  0  0  0
   38.6900  -13.6540   32.8060 C   0  0  0  0  0  0  0  0  0  0  0  0
   38.6150  -12.2010   32.8000 C   0  0  0  0  0  3  0  0  0  0  0  0
   37.9290  -14.5030   33.8540 C   0  0  0  0  0  3  0  0  0  0  0  0
   37.7600  -11.5310   33.8660 C   0  0  0  0  0  3  0  0  0  0  0  0
   37.1030  -13.8310   34.8970 C   0  0  0  0  0  3  0  0  0  0  0  0
   37.0350  -12.3400   34.8960 C   0  0  0  0  0  3  0  0  0  0  0  0
   35.5000  -12.7830   29.7490 C   0  0  2  0  0  3  0  0  0  0  0  0
   34.7560  -12.1350   31.1110 C   0  0  0  0  0  3  0  0  0  0  0  0
   33.6900  -10.9680   31.0400 C   0  0  0  0  0  1  0  0  0  0  0  0
   34.6350  -13.0370   32.4320 C   0  0  0  0  0  1  0  0  0  0  0  0
   34.9470  -13.9670   29.6820 N   0  0  0  0  0  0  0  0  0  0  0  0
   33.9510  -13.9990   28.5460 C   0  0  0  0  0  0  0  0  0  0  0  0
   33.7230  -12.8570   27.8250 O   0  0  0  0  0  0  0  0  0  0  0  0
   35.1500  -14.7220   30.2800 H   0  0  0  0  0  0  0  0  0  0  0  0
   33.2650  -15.2150   28.2180 N   0  0  0  0  0  0  0  0  0  0  0  0
   33.6420  -15.9590   26.9810 C   0  0  0  0  0  1  0  0  0  0  0  0
   32.1600  -15.7950   29.1580 C   0  0  0  0  0  2  0  0  0  0  0  0
   32.7820  -16.5740   30.3040 C   0  0  0  0  0  0  0  0  0  0  0  0
   32.8870  -16.0960   31.5540 C   0  0  0  0  0  3  0  0  0  0  0  0
   33.2460  -17.7960   30.0600 N   0  0  0  0  0  0  0  0  0  0  0  0
   33.6840  -17.5070   32.3350 S   0  0  0  0  0  0  0  0  0  0  0  0
   33.7890  -18.5300   30.9200 C   0  0  0  0  0  0  0  0  0  0  0  0
   34.3970  -19.9770   30.5730 C   0  0  0  0  0  3  0  0  0  0  0  0
   35.8810  -19.9780   30.3830 C   0  0  0  0  0  1  0  0  0  0  0  0
   33.9790  -21.0620   31.5460 C   0  0  0  0  0  1  0  0  0  0  0  0
  1  4  1  0  0  0  0
  1  5  2  3  0  0  0
  2  1  1  0  0  0  0
  3  2  2  0  0  0  0
  5 29  1  0  0  0  0
  6  5  1  0  0  0  0
  7 27  1  0  0  0  0
  7  6  1  1  0  0  0
  8 20  1  0  0  0  0
  8  7  1  0  0  0  0
  9 10  1  0  0  0  0
  9  8  2  3  0  0  0
 10 11  2  0  0  0  0
 12  9  1  0  0  0  0
 13 10  1  0  0  0  0
 14 13  1  0  0  0  0
 14 15  1  0  0  0  0
 15 16  2  0  0  0  0
 16 17  1  0  0  0  0
 18 17  2  0  0  0  0
 19 15  1  0  0  0  0
 19 18  1  0  0  0  0
 20 21  1  0  0  0  0
 21 22  1  0  0  0  0
 22 24  2  0  0  0  0
 23 25  1  0  0  0  0
 23 21  2  0  0  0  0
 25 26  2  0  0  0  0
 26 24  1  0  0  0  0
 27 28  1  0  0  0  0
 29 30  1  0  0  0  0
 30 32  1  0  0  0  0
 31 30  2  0  0  0  0
 31 33  1  0  0  0  0
 32 34  2  0  0  0  0
 33 35  2  0  0  0  0
 35 34  1  0  0  0  0
 36  2  1  1  0  0  0
 36 37  1  0  0  0  0
 37 39  1  0  0  0  0
 38 37  1  0  0  0  0
 40 36  1  0  0  0  0
 40 43  1  0  0  0  0
 41 40  1  0  0  0  0
 42 41  2  0  0  0  0
 44 41  1  0  0  0  0
 44 46  1  0  0  0  0
 45 44  1  0  0  0  0
 46 47  1  0  0  0  0
 47 48  2  0  0  0  0
 48 50  1  0  0  0  0
 49 47  1  0  0  0  0
 49 51  2  0  0  0  0
 51 50  1  0  0  0  0
 52 51  1  0  0  0  0
 52 54  1  0  0  0  0
 53 52  1  0  0  0  0
M  END
>  <MODEL>
1

>  <REMARK>
 VINA RESULT:   -10.744      0.000      0.000
 INTER + INTRA:         -27.304
 INTER:                 -22.364
 INTRA:                  -4.940
 UNBOUND:                -4.940
 SMILES CC(C)c1nc(CN(C)C(=O)N[C@H](C(=O)N/C(=C\[C@H](O)[C@H](Cc2ccccc2)NC(=O)OCc2cncs2)Cc2ccccc2)C(C)C)cs1
 SMILES IDX 16 1 14 2 15 3 17 5 18 6 19 7 21 8 29 9 30 10 31 11 32 13
 SMILES IDX 33 14 34 15 35 16 36 17 37 18 38 19 22 20 23 21 24 22 28 23
 SMILES IDX 25 24 27 25 26 26 20 27 39 29 40 30 41 31 45 32 42 33 44 34
 SMILES IDX 43 35 13 36 46 37 47 38 48 39 12 40 10 41 11 42 8 44 9 45
 SMILES IDX 7 46 6 47 49 48 5 49 50 50 4 51 2 52 1 53 3 54
 H PARENT 16 4 29 12 20 28 12 43

>  <TORSDO>
F 19

$$$$
