4369359
     RDKit          3D

 43 45  0  0  1  0  0  0  0  0999 V2000
    7.9651   -0.0598   -0.3119 F   0  0  0  0  0  0  0  0  0  0  0  0
    6.7993   -1.4846    0.8622 F   0  0  0  0  0  0  0  0  0  0  0  0
    6.5089   -1.3592   -1.2880 F   0  0  0  0  0  0  0  0  0  0  0  0
   -3.6899   -1.9916   -0.5648 F   0  0  0  0  0  0  0  0  0  0  0  0
   -7.6016    1.5435    0.8030 F   0  0  0  0  0  0  0  0  0  0  0  0
   -8.2533   -0.8927   -0.2628 F   0  0  0  0  0  0  0  0  0  0  0  0
   -0.3448   -1.2675   -0.3131 O   0  0  0  0  0  0  0  0  0  0  0  0
    1.5370   -0.0099    0.0319 N   0  0  0  0  0  0  0  0  0  0  0  0
    4.3269    0.0655    0.0492 N   0  0  0  0  0  0  0  0  0  0  0  0
    4.4964    2.2173    0.3487 N   0  0  0  0  0  0  0  0  0  0  0  0
   -2.7083    2.0812   -1.3740 N   0  0  0  0  0  0  0  0  0  0  0  0
    5.7616    1.6915    0.2173 N   0  0  0  0  0  0  0  0  0  0  0  0
    2.2825   -1.1995    0.4650 C   0  0  0  0  0  0  0  0  0  0  0  0
    3.6914   -1.2219   -0.1217 C   0  0  0  0  0  0  0  0  0  0  0  0
    2.1521    1.2947    0.3174 C   0  0  0  0  0  0  0  0  0  0  0  0
    3.6351    1.2305    0.2386 C   0  0  0  0  0  0  0  0  0  0  0  0
   -0.6021    1.1129   -0.5598 C   0  0  0  0  0  0  0  0  0  0  0  0
   -2.1030    0.8627   -0.7981 C   0  0  1  0  0  0  0  0  0  0  0  0
    0.1839   -0.1585   -0.2650 C   0  0  0  0  0  0  0  0  0  0  0  0
   -2.8317    0.4887    0.5166 C   0  0  0  0  0  0  0  0  0  0  0  0
    5.6554    0.3876    0.0281 C   0  0  0  0  0  0  0  0  0  0  0  0
   -4.2861    0.1260    0.3220 C   0  0  0  0  0  0  0  0  0  0  0  0
    6.7337   -0.6081   -0.1757 C   0  0  0  0  0  0  0  0  0  0  0  0
   -4.6437   -1.1138   -0.2256 C   0  0  0  0  0  0  0  0  0  0  0  0
   -5.3045    1.0263    0.6679 C   0  0  0  0  0  0  0  0  0  0  0  0
   -6.6374    0.6756    0.4670 C   0  0  0  0  0  0  0  0  0  0  0  0
   -5.9748   -1.4656   -0.4255 C   0  0  0  0  0  0  0  0  0  0  0  0
   -6.9682   -0.5618   -0.0751 C   0  0  0  0  0  0  0  0  0  0  0  0
    1.7624   -2.1213    0.1857 H   0  0  0  0  0  0  0  0  0  0  0  0
    2.3206   -1.1679    1.5614 H   0  0  0  0  0  0  0  0  0  0  0  0
    4.3001   -1.9878    0.3672 H   0  0  0  0  0  0  0  0  0  0  0  0
    3.6621   -1.4144   -1.1998 H   0  0  0  0  0  0  0  0  0  0  0  0
    1.8440    1.5902    1.3264 H   0  0  0  0  0  0  0  0  0  0  0  0
    1.7843    2.0445   -0.3884 H   0  0  0  0  0  0  0  0  0  0  0  0
   -0.1620    1.5531   -1.4638 H   0  0  0  0  0  0  0  0  0  0  0  0
   -0.4749    1.8181    0.2697 H   0  0  0  0  0  0  0  0  0  0  0  0
   -2.2304    0.0555   -1.5294 H   0  0  0  0  0  0  0  0  0  0  0  0
   -2.3386   -0.3602    1.0054 H   0  0  0  0  0  0  0  0  0  0  0  0
   -2.7547    1.3173    1.2340 H   0  0  0  0  0  0  0  0  0  0  0  0
   -2.2888    2.2823   -2.2814 H   0  0  0  0  0  0  0  0  0  0  0  0
   -2.5270    2.8894   -0.7812 H   0  0  0  0  0  0  0  0  0  0  0  0
   -5.0733    2.0034    1.0810 H   0  0  0  0  0  0  0  0  0  0  0  0
   -6.2304   -2.4293   -0.8493 H   0  0  0  0  0  0  0  0  0  0  0  0
  1 23  1  0
  2 23  1  0
  3 23  1  0
  4 24  1  0
  5 26  1  0
  6 28  1  0
  7 19  2  0
  8 13  1  0
  8 15  1  0
  8 19  1  0
  9 14  1  0
  9 16  1  0
  9 21  1  0
 10 12  1  0
 10 16  2  0
 11 18  1  0
 11 40  1  0
 11 41  1  0
 12 21  2  0
 13 14  1  0
 13 29  1  0
 13 30  1  0
 14 31  1  0
 14 32  1  0
 15 16  1  0
 15 33  1  0
 15 34  1  0
 17 18  1  0
 17 19  1  0
 17 35  1  0
 17 36  1  0
 18 20  1  0
 18 37  1  6
 20 22  1  0
 20 38  1  0
 20 39  1  0
 21 23  1  0
 22 24  2  0
 22 25  1  0
 24 27  1  0
 25 26  2  0
 25 42  1  0
 26 28  1  0
 27 28  2  0
 27 43  1  0
M  END
>  <PUBCHEM_COMPOUND_CID>  (1) 
4369359

>  <PUBCHEM_CONFORMER_RMSD>  (1) 
0.8

>  <PUBCHEM_CONFORMER_DIVERSEORDER>  (1) 
1
281
436
323
114
244
154
270
140
100
327
51
271
292
381
48
207
246
135
212
419
34
81
43
364
72
427
267
333
313
376
226
22
227
231
157
127
441
60
269
88
123
45
80
402
299
252
348
166
340
229
382
228
265
44
297
242
247
204
250
409
276
408
245
193
137
64
146
53
336
94
142
71
390
91
26
113
239
121
35
65
401
93
133
435
104
411
431
253
273
54
312
105
263
14
8
345
343
430
222
184
330
182
162
221
202
284
303
168
394
92
9
391
259
4
378
130
278
407
46
178
357
176
354
234
425
295
350
215
191
39
128
302
316
355
282
360
134
131
225
380
398
10
298
167
79
27
5
329
243
374
31
365
314
169
440
439
29
56
418
266
339
332
353
373
111
387
171
18
347
422
101
223
15
124
129
233
238
428
186
107
342
385
138
102
331
261
286
414
148
82
6
109
143
75
421
444
149
443
170
99
426
67
432
346
40
209
274
59
306
370
288
185
216
198
405
90
319
2
120
11
96
415
392
47
74
37
420
283
132
70
126
28
141
377
372
437
97
379
334
361
433
301
413
103
359
412
434
19
32
17
206
192
150
384
30
78
438
116
224
203
110
352
367
240
236
403
277
23
153
335
85
76
446
188
122
87
371
219
318
95
383
424
21
41
290
315
77
164
344
254
304
280
296
174
173
156
175
50
194
294
393
264
429
395
309
52
147
25
241
349
375
152
117
260
208
356
196
118
189
358
285
326
38
73
406
199
89
61
3
190
400
258
187
396
338
256
55
300
388
145
197
112
42
322
7
325
16
86
158
293
84
13
139
291
58
63
165
289
362
160
155
159
397
308
69
211
24
287
201
183
12
307
320
399
368
386
180
442
275
106
220
119
230
83
108
214
33
328
115
144
341
177
125
62
416
68
232
417
423
205
136
249
324
195
161
268
257
66
310
36
213
255
237
248
445
151
179
404
49
172
351
200
20
337
321
305
163
218
98
235
210
181
369
251
57
272
317
410
363
217
279
311
262
366
389

>  <PUBCHEM_MMFF94_PARTIAL_CHARGES>  (1) 
32
1 -0.34
10 -0.34
11 -0.99
12 -0.34
13 0.3
14 0.26
15 0.48
16 0.01
17 0.06
18 0.27
19 0.57
2 -0.34
20 0.14
21 0.01
22 -0.14
23 1.2
24 0.19
25 -0.15
26 0.19
27 -0.15
28 0.19
3 -0.34
4 -0.19
40 0.36
41 0.36
42 0.15
43 0.15
5 -0.19
6 -0.19
7 -0.57
8 -0.66
9 0.05

>  <PUBCHEM_EFFECTIVE_ROTOR_COUNT>  (1) 
6.8

>  <PUBCHEM_PHARMACOPHORE_FEATURES>  (1) 
8
1 11 cation
1 11 donor
1 7 acceptor
3 9 10 16 cation
3 9 12 21 cation
5 9 10 12 16 21 rings
6 22 24 25 26 27 28 rings
6 8 9 13 14 15 16 rings

>  <PUBCHEM_HEAVY_ATOM_COUNT>  (1) 
28

>  <PUBCHEM_ATOM_DEF_STEREO_COUNT>  (1) 
1

>  <PUBCHEM_ATOM_UDEF_STEREO_COUNT>  (1) 
0

>  <PUBCHEM_BOND_DEF_STEREO_COUNT>  (1) 
0

>  <PUBCHEM_BOND_UDEF_STEREO_COUNT>  (1) 
0

>  <PUBCHEM_ISOTOPIC_ATOM_COUNT>  (1) 
0

>  <PUBCHEM_COMPONENT_COUNT>  (1) 
1

>  <PUBCHEM_CACTVS_TAUTO_COUNT>  (1) 
1

>  <PUBCHEM_CONFORMER_ID>  (1) 
0042ABCF00000001

>  <PUBCHEM_MMFF94_ENERGY>  (1) 
41.0756

>  <PUBCHEM_FEATURE_SELFOVERLAP>  (1) 
43.165

>  <PUBCHEM_SHAPE_FINGERPRINT>  (1) 
10 15 17632857559596172984
10299344 5 18334860519372781386
11045977 3 18273213131855502265
11315181 36 18343024398221488513
11524674 6 17418092131049700167
11719270 70 17775287149276425990
12166972 35 18334297574152943804
12236239 1 18202001057526458121
12516196 113 18187082875709156349
12596602 18 18202002157117253185
12616971 3 17489297607955412468
13533116 47 17385714756227297730
13782708 43 18114457860683297202
14251764 18 18412826901677862351
14341114 176 18412265051220614816
14394314 77 18260268508980371489
14556957 393 15285647542579691782
14933364 13 18413672409045351896
15183329 4 18411139121385989378
15352257 5 18408603651951765570
15461852 350 17703784839502958093
15716309 27 18342737438165222279
18222031 100 16732980942629760508
18608769 82 18409163334020175846
2026 5 16444736148911510986
21150785 3 12612756817386328248
21267235 1 18343023268729439948
21315763 28 18342175592282114217
2132832 1 16370731417768272437
23035841 295 18260267447294819499
23522609 53 18044968751319870956
23559900 14 18270392923517648897
3009799 131 10737287948062025950
3383291 50 17822581624660681843
350125 39 18411136939795517772
4073 2 18188212129848515538
4325135 7 18410012143299598698
5104073 3 18338785724819471696
5385378 56 13254530742270882853
59682541 35 18334295413393452008
59755656 215 18334859398529209666
59755656 520 12895069605384577533
6081469 158 18261105275740637117
9996256 80 18410571790966618358

>  <PUBCHEM_SHAPE_MULTIPOLES>  (1) 
501.81
22.21
2.02
0.91
0.16
0.15
-0.18
-5.28
4.55
-0.31
-0.12
0.08
0.17
0.51

>  <PUBCHEM_SHAPE_SELFOVERLAP>  (1) 
1079.006

>  <PUBCHEM_SHAPE_VOLUME>  (1) 
278.9

>  <PUBCHEM_COORDINATE_TYPE>  (1) 
2
5
10

$$$$
