/home/regulus/Documents/ATLAS/results/cmap/docking/02_sitagliptin_DPP4_1X70/reference_redocked.pdbqt
 OpenBabel08312617063D

 30 32  0  0  1  0  0  0  0  0999 V2000
   40.6040   51.1980   36.3740 C   0  0  0  0  0  2  0  0  0  0  0  0
   39.2620   50.7960   35.8160 C   0  0  1  0  0  3  0  0  0  0  0  0
   38.2250   51.0120   36.9370 C   0  0  0  0  0  2  0  0  0  0  0  0
   36.9470   50.2740   36.6860 C   0  0  0  0  0  0  0  0  0  0  0  0
   34.4320   50.3030   36.8310 C   0  0  0  0  0  3  0  0  0  0  0  0
   35.7030   50.9170   37.0360 C   0  0  0  0  0  0  0  0  0  0  0  0
   34.4150   49.0090   36.2480 C   0  0  0  0  0  0  0  0  0  0  0  0
   35.6200   48.3470   35.8940 C   0  0  0  0  0  0  0  0  0  0  0  0
   36.8970   48.9640   36.0990 C   0  0  0  0  0  3  0  0  0  0  0  0
   35.7250   52.1250   37.5810 F   0  0  0  0  0  0  0  0  0  0  0  0
   33.2670   48.4280   36.0480 F   0  0  0  0  0  0  0  0  0  0  0  0
   35.5730   47.1550   35.3560 F   0  0  0  0  0  0  0  0  0  0  0  0
   38.9190   51.6430   34.6730 N   0  0  0  0  0  0  0  0  0  0  0  0
   38.7260   52.5910   34.9980 H   0  0  0  0  0  0  0  0  0  0  0  0
   38.0920   51.2680   34.2080 H   0  0  0  0  0  0  0  0  0  0  0  0
   41.8460   51.2260   35.3810 C   0  0  0  0  0  0  0  0  0  0  0  0
   41.8060   50.5400   34.3430 O   0  0  0  0  0  0  0  0  0  0  0  0
   42.9820   52.0100   35.7890 N   0  0  0  0  0  0  0  0  0  0  0  0
   43.9570   51.1300   36.6290 C   0  0  0  0  0  2  0  0  0  0  0  0
   43.5140   52.7100   34.5950 C   0  0  0  0  0  2  0  0  0  0  0  0
   45.4620   51.2990   36.3310 C   0  0  0  0  0  0  0  0  0  0  0  0
   44.8360   52.2200   34.0380 C   0  0  0  0  0  2  0  0  0  0  0  0
   45.7940   51.8100   35.1070 N   0  0  0  0  0  0  0  0  0  0  0  0
   46.5510   51.0360   37.0400 N   0  0  0  0  0  0  0  0  0  0  0  0
   47.1400   51.8190   35.1480 C   0  0  0  0  0  0  0  0  0  0  0  0
   47.5540   51.3450   36.3380 N   0  0  0  0  0  0  0  0  0  0  0  0
   48.0880   52.2860   34.0390 C   0  0  0  0  0  0  0  0  0  0  0  0
   49.3220   52.0260   34.4520 F   0  0  0  0  0  0  0  0  0  0  0  0
   47.8010   51.6130   32.9570 F   0  0  0  0  0  0  0  0  0  0  0  0
   47.9120   53.5960   33.8240 F   0  0  0  0  0  0  0  0  0  0  0  0
  2  1  1  1  0  0  0
  2  3  1  0  0  0  0
  4  3  1  0  0  0  0
  4  6  1  0  0  0  0
  5  6  2  0  0  0  0
  6 10  1  0  0  0  0
  7  5  1  0  0  0  0
  8  9  1  0  0  0  0
  8  7  2  0  0  0  0
  9  4  2  0  0  0  0
 11  7  1  0  0  0  0
 12  8  1  0  0  0  0
 13 14  1  0  0  0  0
 13  2  1  0  0  0  0
 15 13  1  0  0  0  0
 16 18  1  0  0  0  0
 16  1  1  0  0  0  0
 17 16  2  0  0  0  0
 18 19  1  0  0  0  0
 20 18  1  0  0  0  0
 21 19  1  0  0  0  0
 21 24  2  0  0  0  0
 22 20  1  0  0  0  0
 22 23  1  0  0  0  0
 23 25  1  0  0  0  0
 23 21  1  0  0  0  0
 25 26  2  0  0  0  0
 26 24  1  0  0  0  0
 27 28  1  0  0  0  0
 27 25  1  0  0  0  0
 29 27  1  0  0  0  0
 30 27  1  0  0  0  0
M  END
>  <MODEL>
1

>  <REMARK>
 VINA RESULT:    -8.917      0.000      0.000
 INTER + INTRA:         -13.104
 INTER:                 -12.305
 INTRA:                  -0.799
 UNBOUND:                -0.799
 SMILES N[C@@H](CC(=O)N1CCn2c(nnc2C(F)(F)F)C1)Cc1cc(F)c(F)cc1F
 SMILES IDX 3 1 2 2 19 3 20 4 26 5 27 6 24 7 22 8 21 9 28 10 25 11 23 12
 SMILES IDX 1 13 4 16 5 17 6 18 18 19 7 20 10 21 8 22 9 23 11 24 13 25
 SMILES IDX 12 26 14 27 16 28 15 29 17 30
 H PARENT 1 14 1 15

>  <TORSDO>
F 7

$$$$
