/home/regulus/Documents/ATLAS/results/cmap/docking/01_clofibrate_CYP3A4_3NXU/reference_redocked.pdbqt
 OpenBabel08312617053D

 54 57  0  0  1  0  0  0  0  0999 V2000
   37.0920  -14.2740   30.1760 N   0  0  0  0  0  4  0  0  0  0  0  0
   36.4760  -13.1410   29.6630 C   0  0  0  0  0  0  0  0  0  0  0  0
   37.0480  -12.1150   29.3910 O   0  0  0  0  0  0  0  0  0  0  0  0
   36.5000  -15.0200   30.4280 H   0  0  0  0  0  0  0  0  0  0  0  0
   38.5590  -14.4860   30.3900 C   0  0  0  0  0  0  0  0  0  0  0  0
   39.1250  -15.2670   29.4820 C   0  0  0  0  0  2  0  0  0  0  0  0
   38.3330  -15.7990   28.2670 C   0  0  1  0  0  3  0  0  0  0  0  0
   39.2110  -16.9640   27.8800 C   0  0  0  0  0  0  0  0  0  0  0  0
   38.8650  -17.6970   26.5080 N   0  0  0  0  0  4  0  0  0  0  0  0
   38.4400  -19.0230   26.6270 C   0  0  0  0  0  0  0  0  0  0  0  0
   38.3990  -19.6160   27.9270 O   0  0  0  0  0  0  0  0  0  0  0  0
   38.9460  -17.2460   25.6370 H   0  0  0  0  0  0  0  0  0  0  0  0
   37.8510  -19.6630   25.6400 O   0  0  0  0  0  0  0  0  0  0  0  0
   36.6800  -18.9060   25.1920 C   0  0  0  0  0  2  0  0  0  0  0  0
   35.6720  -19.2980   25.8260 C   0  0  0  0  0  0  0  0  0  0  0  0
   34.7910  -18.9330   26.5880 C   0  0  0  0  0  3  0  0  0  0  0  0
   33.9840  -19.8960   27.0230 N   0  0  0  0  0  0  0  0  0  0  0  0
   34.2110  -21.1290   26.6270 C   0  0  0  0  0  3  0  0  0  0  0  0
   35.5000  -20.9670   25.7010 S   0  0  0  0  0  0  0  0  0  0  0  0
   40.7120  -16.7370   28.3270 C   0  0  0  0  0  2  0  0  0  0  0  0
   41.3000  -18.0420   28.6350 C   0  0  0  0  0  0  0  0  0  0  0  0
   40.8860  -18.6570   29.9930 C   0  0  0  0  0  3  0  0  0  0  0  0
   42.2050  -18.7480   27.7400 C   0  0  0  0  0  3  0  0  0  0  0  0
   41.4090  -19.9920   30.3980 C   0  0  0  0  0  3  0  0  0  0  0  0
   42.7210  -20.0670   28.1510 C   0  0  0  0  0  3  0  0  0  0  0  0
   42.3290  -20.6940   29.4760 C   0  0  0  0  0  3  0  0  0  0  0  0
   37.0460  -16.4580   28.8550 O   0  0  0  0  0  0  0  0  0  0  0  0
   36.6720  -15.8820   29.5390 H   0  0  0  0  0  0  0  0  0  0  0  0
   39.4090  -14.3720   31.8150 C   0  0  0  0  0  2  0  0  0  0  0  0
   38.6060  -13.6030   32.7310 C   0  0  0  0  0  0  0  0  0  0  0  0
   38.5490  -12.1490   32.7090 C   0  0  0  0  0  3  0  0  0  0  0  0
   37.8620  -14.4300   33.8080 C   0  0  0  0  0  3  0  0  0  0  0  0
   37.7300  -11.4560   33.7890 C   0  0  0  0  0  3  0  0  0  0  0  0
   37.0710  -13.7360   34.8630 C   0  0  0  0  0  3  0  0  0  0  0  0
   37.0210  -12.2440   34.8460 C   0  0  0  0  0  3  0  0  0  0  0  0
   35.0800  -13.3200   29.8410 C   0  0  2  0  0  3  0  0  0  0  0  0
   34.2990  -12.2400   30.8690 C   0  0  0  0  0  3  0  0  0  0  0  0
   33.1610  -11.2550   30.3830 C   0  0  0  0  0  1  0  0  0  0  0  0
   34.2380  -12.5690   32.4380 C   0  0  0  0  0  1  0  0  0  0  0  0
   34.7120  -14.4720   30.3370 N   0  0  0  0  0  0  0  0  0  0  0  0
   33.5930  -15.0510   29.5020 C   0  0  0  0  0  0  0  0  0  0  0  0
   33.1000  -14.3260   28.4510 O   0  0  0  0  0  0  0  0  0  0  0  0
   35.1030  -14.8980   31.1330 H   0  0  0  0  0  0  0  0  0  0  0  0
   33.0650  -16.3520   29.7980 N   0  0  0  0  0  0  0  0  0  0  0  0
   32.2070  -17.0420   28.7920 C   0  0  0  0  0  1  0  0  0  0  0  0
   33.4110  -17.0750   31.1400 C   0  0  0  0  0  2  0  0  0  0  0  0
   34.1710  -18.3640   30.8760 C   0  0  0  0  0  0  0  0  0  0  0  0
   35.2930  -18.4260   30.1420 C   0  0  0  0  0  3  0  0  0  0  0  0
   33.7030  -19.4920   31.4030 N   0  0  0  0  0  0  0  0  0  0  0  0
   35.6180  -20.1910   30.2650 S   0  0  0  0  0  0  0  0  0  0  0  0
   34.2360  -20.6170   31.2470 C   0  0  0  0  0  0  0  0  0  0  0  0
   33.6060  -21.9700   31.8450 C   0  0  0  0  0  3  0  0  0  0  0  0
   34.6300  -22.9940   32.2270 C   0  0  0  0  0  1  0  0  0  0  0  0
   32.6290  -21.7380   32.9800 C   0  0  0  0  0  1  0  0  0  0  0  0
  1  5  2  3  0  0  0
  1  4  1  0  0  0  0
  2  1  1  0  0  0  0
  3  2  2  0  0  0  0
  5 29  1  0  0  0  0
  6  5  1  0  0  0  0
  7 27  1  0  0  0  0
  7  6  1  1  0  0  0
  8  7  1  0  0  0  0
  8 20  1  0  0  0  0
  9 10  1  0  0  0  0
  9  8  2  3  0  0  0
 10 11  2  0  0  0  0
 12  9  1  0  0  0  0
 13 10  1  0  0  0  0
 14 13  1  0  0  0  0
 14 15  1  0  0  0  0
 15 16  2  0  0  0  0
 16 17  1  0  0  0  0
 18 17  2  0  0  0  0
 19 15  1  0  0  0  0
 19 18  1  0  0  0  0
 20 21  1  0  0  0  0
 21 22  1  0  0  0  0
 22 24  2  0  0  0  0
 23 25  1  0  0  0  0
 23 21  2  0  0  0  0
 25 26  2  0  0  0  0
 26 24  1  0  0  0  0
 27 28  1  0  0  0  0
 29 30  1  0  0  0  0
 30 32  1  0  0  0  0
 31 30  2  0  0  0  0
 31 33  1  0  0  0  0
 32 34  2  0  0  0  0
 33 35  2  0  0  0  0
 35 34  1  0  0  0  0
 36  2  1  1  0  0  0
 36 40  1  0  0  0  0
 36 37  1  0  0  0  0
 37 39  1  0  0  0  0
 38 37  1  0  0  0  0
 40 43  1  0  0  0  0
 41 44  1  0  0  0  0
 41 40  1  0  0  0  0
 42 41  2  0  0  0  0
 44 46  1  0  0  0  0
 45 44  1  0  0  0  0
 47 46  1  0  0  0  0
 47 49  1  0  0  0  0
 48 50  1  0  0  0  0
 48 47  2  0  0  0  0
 50 51  1  0  0  0  0
 51 49  2  0  0  0  0
 51 52  1  0  0  0  0
 52 53  1  0  0  0  0
 52 54  1  0  0  0  0
M  END
>  <MODEL>
1

>  <REMARK>
 VINA RESULT:   -11.055      0.000      0.000
 INTER + INTRA:         -27.285
 INTER:                 -23.012
 INTRA:                  -4.274
 UNBOUND:                -4.274
 SMILES CC(C)c1nc(CN(C)C(=O)N[C@H](C(=O)N/C(=C\[C@H](O)[C@H](Cc2ccccc2)NC(=O)OCc2cncs2)Cc2ccccc2)C(C)C)cs1
 SMILES IDX 16 1 14 2 15 3 17 5 18 6 19 7 21 8 29 9 30 10 31 11 32 13
 SMILES IDX 33 14 34 15 35 16 36 17 37 18 38 19 22 20 23 21 24 22 28 23
 SMILES IDX 25 24 27 25 26 26 20 27 39 29 40 30 41 31 45 32 42 33 44 34
 SMILES IDX 43 35 13 36 46 37 47 38 48 39 12 40 10 41 11 42 8 44 9 45
 SMILES IDX 7 46 6 47 49 48 5 49 50 50 4 51 2 52 1 53 3 54
 H PARENT 16 4 29 12 20 28 12 43

>  <TORSDO>
F 19

$$$$
