/home/regulus/Documents/ATLAS/results/cmap/docking/01_clofibrate_CYP3A4_3NXU/reference_RIT.pdb
 OpenBabel08312617043D

 96 99  0  0  1  0  0  0  0  0999 V2000
   35.4590  -21.3130   25.2050 C   0  0  0  0  0  0  0  0  0  0  0  0
   36.1420  -21.1130   26.1970 C   0  0  0  0  0  0  0  0  0  0  0  0
   35.0550  -20.7640   27.4330 S   0  0  0  0  0  0  0  0  0  0  0  0
   33.7050  -20.9540   26.6040 C   0  0  0  0  0  0  0  0  0  0  0  0
   34.1460  -21.2460   25.4000 N   0  0  0  0  0  0  0  0  0  0  0  0
   37.3240  -20.9920   26.5970 C   0  0  0  0  0  0  0  0  0  0  0  0
   37.9540  -19.8720   25.8940 O   0  0  0  0  0  0  0  0  0  0  0  0
   38.5630  -19.0920   26.7600 C   0  0  0  0  0  0  0  0  0  0  0  0
   38.2630  -19.2700   28.1460 O   0  0  0  0  0  0  0  0  0  0  0  0
   39.2740  -17.9540   26.3690 N   0  0  0  0  0  0  0  0  0  0  0  0
   39.6280  -16.9330   27.5400 C   0  0  2  0  0  0  0  0  0  0  0  0
   38.9760  -15.5730   27.4740 C   0  0  2  0  0  0  0  0  0  0  0  0
   37.5930  -15.9730   26.9140 C   0  0  0  0  0  0  0  0  0  0  0  0
   36.4710  -15.6090   27.5160 C   0  0  0  0  0  0  0  0  0  0  0  0
   41.0920  -16.8500   28.1340 C   0  0  0  0  0  0  0  0  0  0  0  0
   41.4860  -18.1910   28.5690 C   0  0  0  0  0  0  0  0  0  0  0  0
   40.7910  -18.7080   29.8500 C   0  0  0  0  0  0  0  0  0  0  0  0
   41.1020  -20.0690   30.3700 C   0  0  0  0  0  0  0  0  0  0  0  0
   42.0880  -20.8920   29.6360 C   0  0  0  0  0  0  0  0  0  0  0  0
   42.7580  -20.3590   28.3830 C   0  0  0  0  0  0  0  0  0  0  0  0
   42.4530  -19.0150   27.8590 C   0  0  0  0  0  0  0  0  0  0  0  0
   39.7120  -14.8430   26.3070 O   0  0  0  0  0  0  0  0  0  0  0  0
   35.1130  -15.7470   26.5650 C   0  0  0  0  0  0  0  0  0  0  0  0
   33.9730  -15.7500   27.4450 C   0  0  0  0  0  0  0  0  0  0  0  0
   33.2850  -14.5360   27.8570 C   0  0  0  0  0  0  0  0  0  0  0  0
   32.1480  -14.6710   28.8600 C   0  0  0  0  0  0  0  0  0  0  0  0
   31.7620  -16.0070   29.4150 C   0  0  0  0  0  0  0  0  0  0  0  0
   32.4610  -17.2540   28.9850 C   0  0  0  0  0  0  0  0  0  0  0  0
   33.5710  -17.1400   27.9970 C   0  0  0  0  0  0  0  0  0  0  0  0
   36.6790  -14.7080   28.6930 N   0  0  0  0  0  0  0  0  0  0  0  0
   35.6150  -13.3900   31.6320 N   0  0  0  0  0  0  0  0  0  0  0  0
   36.4750  -13.6980   30.6960 C   0  0  2  0  0  0  0  0  0  0  0  0
   36.2120  -14.8980   29.9860 C   0  0  0  0  0  0  0  0  0  0  0  0
   35.4830  -15.7970   30.3250 O   0  0  0  0  0  0  0  0  0  0  0  0
   37.9340  -13.6100   31.5300 C   0  0  0  0  0  0  0  0  0  0  0  0
   38.0390  -13.1510   33.0400 C   0  0  0  0  0  0  0  0  0  0  0  0
   39.1580  -14.5290   31.0500 C   0  0  0  0  0  0  0  0  0  0  0  0
   34.6500  -12.3500   31.1130 C   0  0  0  0  0  0  0  0  0  0  0  0
   33.5590  -11.9010   31.9300 N   0  0  0  0  0  0  0  0  0  0  0  0
   33.3150  -12.5050   33.3500 C   0  0  0  0  0  0  0  0  0  0  0  0
   34.8200  -11.8520   29.8490 O   0  0  0  0  0  0  0  0  0  0  0  0
   34.4510  -12.1430   34.2920 C   0  0  0  0  0  0  0  0  0  0  0  0
   34.9470  -12.9850   35.2120 C   0  0  0  0  0  0  0  0  0  0  0  0
   36.2150  -11.9220   35.9190 S   0  0  0  0  0  0  0  0  0  0  0  0
   35.9180  -10.5120   34.9280 C   0  0  0  0  0  0  0  0  0  0  0  0
   34.9860  -10.9290   34.2000 N   0  0  0  0  0  0  0  0  0  0  0  0
   36.4970   -9.0150   34.8320 C   0  0  0  0  0  0  0  0  0  0  0  0
   36.5430   -8.3010   36.1470 C   0  0  0  0  0  0  0  0  0  0  0  0
   37.8340   -8.9230   34.1240 C   0  0  0  0  0  0  0  0  0  0  0  0
   32.6190  -10.8720   31.3980 C   0  0  0  0  0  0  0  0  0  0  0  0
   35.8714  -21.5192   24.2817 H   0  0  0  0  0  0  0  0  0  0  0  0
   32.7298  -20.8690   26.9309 H   0  0  0  0  0  0  0  0  0  0  0  0
   37.3286  -20.8025   27.6501 H   0  0  0  0  0  0  0  0  0  0  0  0
   37.8661  -21.8931   26.3996 H   0  0  0  0  0  0  0  0  0  0  0  0
   39.5380  -17.7942   25.4341 H   0  0  0  0  0  0  0  0  0  0  0  0
   39.1256  -17.5118   28.2866 H   0  0  0  0  0  0  0  0  0  0  0  0
   38.9692  -14.9905   28.3715 H   0  0  0  0  0  0  0  0  0  0  0  0
   37.5423  -16.5367   26.0511 H   0  0  0  0  0  0  0  0  0  0  0  0
   41.1070  -16.1797   28.9679 H   0  0  0  0  0  0  0  0  0  0  0  0
   41.7720  -16.4877   27.3916 H   0  0  0  0  0  0  0  0  0  0  0  0
   40.1112  -18.1098   30.3451 H   0  0  0  0  0  0  0  0  0  0  0  0
   40.6413  -20.4285   31.2206 H   0  0  0  0  0  0  0  0  0  0  0  0
   42.3223  -21.8367   29.9790 H   0  0  0  0  0  0  0  0  0  0  0  0
   43.4425  -20.9506   27.8865 H   0  0  0  0  0  0  0  0  0  0  0  0
   42.9161  -18.6654   27.0056 H   0  0  0  0  0  0  0  0  0  0  0  0
   39.6960  -15.4023   25.5146 H   0  0  0  0  0  0  0  0  0  0  0  0
   35.0527  -14.9187   25.8903 H   0  0  0  0  0  0  0  0  0  0  0  0
   35.1463  -16.6454   25.9848 H   0  0  0  0  0  0  0  0  0  0  0  0
   33.5587  -13.6144   27.4818 H   0  0  0  0  0  0  0  0  0  0  0  0
   31.6349  -13.8282   29.1623 H   0  0  0  0  0  0  0  0  0  0  0  0
   30.9990  -16.0668   30.1073 H   0  0  0  0  0  0  0  0  0  0  0  0
   32.1823  -18.1730   29.3628 H   0  0  0  0  0  0  0  0  0  0  0  0
   34.0709  -17.9859   27.6813 H   0  0  0  0  0  0  0  0  0  0  0  0
   37.2046  -13.8912   28.5323 H   0  0  0  0  0  0  0  0  0  0  0  0
   35.5990  -13.7770   32.5371 H   0  0  0  0  0  0  0  0  0  0  0  0
   36.4465  -13.0376   29.8546 H   0  0  0  0  0  0  0  0  0  0  0  0
   38.0417  -12.6492   31.0716 H   0  0  0  0  0  0  0  0  0  0  0  0
   37.9505  -14.0045   33.6792 H   0  0  0  0  0  0  0  0  0  0  0  0
   37.2525  -12.4591   33.2580 H   0  0  0  0  0  0  0  0  0  0  0  0
   38.9851  -12.6789   33.2043 H   0  0  0  0  0  0  0  0  0  0  0  0
   39.0729  -15.4979   31.4960 H   0  0  0  0  0  0  0  0  0  0  0  0
   40.0812  -14.0784   31.3494 H   0  0  0  0  0  0  0  0  0  0  0  0
   39.1364  -14.6237   29.9844 H   0  0  0  0  0  0  0  0  0  0  0  0
   33.2498  -13.5701   33.2718 H   0  0  0  0  0  0  0  0  0  0  0  0
   32.4034  -12.1042   33.7415 H   0  0  0  0  0  0  0  0  0  0  0  0
   34.6803  -13.9544   35.4448 H   0  0  0  0  0  0  0  0  0  0  0  0
   35.7809   -8.5054   34.2218 H   0  0  0  0  0  0  0  0  0  0  0  0
   37.2509   -8.7818   36.7893 H   0  0  0  0  0  0  0  0  0  0  0  0
   35.5744   -8.3268   36.6009 H   0  0  0  0  0  0  0  0  0  0  0  0
   36.8366   -7.2840   35.9906 H   0  0  0  0  0  0  0  0  0  0  0  0
   38.5804   -9.4231   34.7050 H   0  0  0  0  0  0  0  0  0  0  0  0
   38.1045   -7.8946   34.0049 H   0  0  0  0  0  0  0  0  0  0  0  0
   37.7609   -9.3863   33.1623 H   0  0  0  0  0  0  0  0  0  0  0  0
   32.9349  -10.5715   30.4208 H   0  0  0  0  0  0  0  0  0  0  0  0
   32.6149  -10.0224   32.0484 H   0  0  0  0  0  0  0  0  0  0  0  0
   31.6330  -11.2840   31.3431 H   0  0  0  0  0  0  0  0  0  0  0  0
  1  5  1  0  0  0  0
  1  2  2  0  0  0  0
  1 51  1  0  0  0  0
  2  6  1  0  0  0  0
  2  3  1  0  0  0  0
  4  3  1  0  0  0  0
  4 52  1  0  0  0  0
  5  4  2  0  0  0  0
  6 53  1  0  0  0  0
  6 54  1  0  0  0  0
  7  6  1  0  0  0  0
  7  8  1  0  0  0  0
  8  9  2  0  0  0  0
 10  8  1  0  0  0  0
 10 11  1  0  0  0  0
 10 55  1  0  0  0  0
 11 15  1  0  0  0  0
 11 56  1  1  0  0  0
 12 11  1  0  0  0  0
 12 57  1  1  0  0  0
 13 12  1  0  0  0  0
 13 14  2  0  0  0  0
 13 58  1  0  0  0  0
 14 30  1  0  0  0  0
 15 16  1  0  0  0  0
 15 59  1  0  0  0  0
 15 60  1  0  0  0  0
 16 17  1  0  0  0  0
 17 18  2  0  0  0  0
 17 61  1  0  0  0  0
 18 62  1  0  0  0  0
 19 18  1  0  0  0  0
 19 63  1  0  0  0  0
 20 19  2  0  0  0  0
 20 64  1  0  0  0  0
 21 20  1  0  0  0  0
 21 16  2  0  0  0  0
 21 65  1  0  0  0  0
 22 12  1  0  0  0  0
 22 66  1  0  0  0  0
 23 24  1  0  0  0  0
 23 14  1  0  0  0  0
 23 67  1  0  0  0  0
 23 68  1  0  0  0  0
 24 25  2  0  0  0  0
 24 29  1  0  0  0  0
 25 26  1  0  0  0  0
 25 69  1  0  0  0  0
 26 27  2  0  0  0  0
 26 70  1  0  0  0  0
 27 71  1  0  0  0  0
 28 27  1  0  0  0  0
 28 72  1  0  0  0  0
 29 28  2  0  0  0  0
 29 73  1  0  0  0  0
 30 33  1  0  0  0  0
 30 74  1  0  0  0  0
 31 75  1  0  0  0  0
 32 35  1  0  0  0  0
 32 31  1  0  0  0  0
 32 76  1  6  0  0  0
 33 34  2  0  0  0  0
 33 32  1  0  0  0  0
 35 36  1  0  0  0  0
 35 77  1  0  0  0  0
 36 78  1  0  0  0  0
 36 79  1  0  0  0  0
 36 80  1  0  0  0  0
 37 35  1  0  0  0  0
 37 81  1  0  0  0  0
 37 82  1  0  0  0  0
 37 83  1  0  0  0  0
 38 31  1  0  0  0  0
 38 39  1  0  0  0  0
 39 40  1  0  0  0  0
 40 42  1  0  0  0  0
 40 84  1  0  0  0  0
 40 85  1  0  0  0  0
 41 38  2  0  0  0  0
 42 43  2  0  0  0  0
 43 44  1  0  0  0  0
 43 86  1  0  0  0  0
 45 44  1  0  0  0  0
 46 42  1  0  0  0  0
 46 45  2  0  0  0  0
 47 45  1  0  0  0  0
 47 48  1  0  0  0  0
 47 87  1  0  0  0  0
 48 88  1  0  0  0  0
 48 89  1  0  0  0  0
 48 90  1  0  0  0  0
 49 47  1  0  0  0  0
 49 91  1  0  0  0  0
 49 92  1  0  0  0  0
 49 93  1  0  0  0  0
 50 39  1  0  0  0  0
 50 94  1  0  0  0  0
 50 95  1  0  0  0  0
 50 96  1  0  0  0  0
M  END
$$$$
