/home/regulus/Documents/ATLAS/results/cmap/docking/03_sitagliptin_DPP4_1X70/reference_715.pdb
     RDKit          3D

 43 45  0  0  1  0  0  0  0  0999 V2000
   34.5880   50.5400   36.7400 C   0  0  0  0  0  0  0  0  0  0  0  0
   35.9160   51.0580   36.8040 C   0  0  0  0  0  0  0  0  0  0  0  0
   37.0810   50.2570   36.5150 C   0  0  0  0  0  0  0  0  0  0  0  0
   36.8900   48.8840   36.1400 C   0  0  0  0  0  0  0  0  0  0  0  0
   35.5560   48.3630   36.0770 C   0  0  0  0  0  0  0  0  0  0  0  0
   34.4320   49.1800   36.3660 C   0  0  0  0  0  0  0  0  0  0  0  0
   35.3810   47.1130   35.7320 F   0  0  0  0  0  0  0  0  0  0  0  0
   36.0680   52.3270   37.1540 F   0  0  0  0  0  0  0  0  0  0  0  0
   38.4290   50.9030   36.6040 C   0  0  0  0  0  0  0  0  0  0  0  0
   39.0930   51.0760   35.2230 C   0  0  2  0  0  0  0  0  0  0  0  0
   40.3800   51.8310   35.4450 C   0  0  0  0  0  0  0  0  0  0  0  0
   41.5760   51.0710   36.1670 C   0  0  0  0  0  0  0  0  0  0  0  0
   42.7630   51.8390   36.4340 N   0  0  0  0  0  0  0  0  0  0  0  0
   38.2030   51.8460   34.3530 N   0  0  0  0  0  0  0  0  0  0  0  0
   41.4170   49.8850   36.5130 O   0  0  0  0  0  0  0  0  0  0  0  0
   42.9990   52.7410   35.2820 C   0  0  0  0  0  0  0  0  0  0  0  0
   44.1670   52.4110   34.3740 C   0  0  0  0  0  0  0  0  0  0  0  0
   45.3490   51.8910   35.1230 N   0  0  0  0  0  0  0  0  0  0  0  0
   45.3110   51.1800   36.2900 C   0  0  0  0  0  0  0  0  0  0  0  0
   43.9160   50.8910   36.8830 C   0  0  0  0  0  0  0  0  0  0  0  0
   46.6690   51.9620   34.8650 C   0  0  0  0  0  0  0  0  0  0  0  0
   47.3490   51.3310   35.8410 N   0  0  0  0  0  0  0  0  0  0  0  0
   46.5370   50.8670   36.6880 N   0  0  0  0  0  0  0  0  0  0  0  0
   47.3330   52.6430   33.6640 C   0  0  0  0  0  0  0  0  0  0  0  0
   48.6230   52.4720   33.7700 F   0  0  0  0  0  0  0  0  0  0  0  0
   47.0130   53.9300   33.7260 F   0  0  0  0  0  0  0  0  0  0  0  0
   46.8880   52.0850   32.5320 F   0  0  0  0  0  0  0  0  0  0  0  0
   33.2290   48.6840   36.2980 F   0  0  0  0  0  0  0  0  0  0  0  0
   33.7714   51.1323   36.9576 H   0  0  0  0  0  0  0  0  0  0  0  0
   37.6992   48.2827   35.9196 H   0  0  0  0  0  0  0  0  0  0  0  0
   38.3185   51.8671   37.0548 H   0  0  0  0  0  0  0  0  0  0  0  0
   39.0575   50.2648   37.1894 H   0  0  0  0  0  0  0  0  0  0  0  0
   39.2848   50.1308   34.7597 H   0  0  0  0  0  0  0  0  0  0  0  0
   40.1463   52.6913   36.0367 H   0  0  0  0  0  0  0  0  0  0  0  0
   40.7462   52.0308   34.4597 H   0  0  0  0  0  0  0  0  0  0  0  0
   38.0095   52.7517   34.7805 H   0  0  0  0  0  0  0  0  0  0  0  0
   37.3286   51.3368   34.2249 H   0  0  0  0  0  0  0  0  0  0  0  0
   42.1130   52.7360   34.6821 H   0  0  0  0  0  0  0  0  0  0  0  0
   43.2456   53.6868   35.7173 H   0  0  0  0  0  0  0  0  0  0  0  0
   43.8542   51.6687   33.6697 H   0  0  0  0  0  0  0  0  0  0  0  0
   44.4648   53.3165   33.8879 H   0  0  0  0  0  0  0  0  0  0  0  0
   43.9950   50.9560   37.9481 H   0  0  0  0  0  0  0  0  0  0  0  0
   43.6465   49.9222   36.5174 H   0  0  0  0  0  0  0  0  0  0  0  0
  1  2  1  0
  1 29  1  0
  2  8  1  0
  3  9  1  0
  3  2  2  0
  4  3  1  0
  4 30  1  0
  5  4  2  0
  5  6  1  0
  6  1  2  0
  7  5  1  0
  9 31  1  0
  9 32  1  0
 10 11  1  0
 10  9  1  0
 10 33  1  6
 11 12  1  0
 11 34  1  0
 11 35  1  0
 12 13  1  0
 12 15  2  0
 13 20  1  0
 14 10  1  0
 14 36  1  0
 14 37  1  0
 16 13  1  0
 16 38  1  0
 16 39  1  0
 17 18  1  0
 17 16  1  0
 17 40  1  0
 17 41  1  0
 18 19  1  0
 19 23  2  0
 19 20  1  0
 20 42  1  0
 20 43  1  0
 21 18  1  0
 21 22  2  0
 22 23  1  0
 24 26  1  0
 24 25  1  0
 24 21  1  0
 27 24  1  0
 28  6  1  0
M  END
$$$$
