/home/regulus/Documents/ATLAS/results/cmap/docking/03_sitagliptin_DPP4_1X70/reference_redocked.pdbqt
 OpenBabel08312612103D

 30 32  0  0  1  0  0  0  0  0999 V2000
   40.7900   50.6870   36.1430 C   0  0  0  0  0  2  0  0  0  0  0  0
   39.3740   50.6800   35.6240 C   0  0  1  0  0  3  0  0  0  0  0  0
   38.4460   50.8580   36.8430 C   0  0  0  0  0  2  0  0  0  0  0  0
   37.1220   50.1820   36.6600 C   0  0  0  0  0  0  0  0  0  0  0  0
   34.6210   50.3400   36.9130 C   0  0  0  0  0  3  0  0  0  0  0  0
   35.9290   50.8920   37.0540 C   0  0  0  0  0  0  0  0  0  0  0  0
   34.5140   49.0410   36.3520 C   0  0  0  0  0  0  0  0  0  0  0  0
   35.6670   48.3140   35.9560 C   0  0  0  0  0  0  0  0  0  0  0  0
   36.9810   48.8690   36.0960 C   0  0  0  0  0  3  0  0  0  0  0  0
   36.0360   52.1040   37.5780 F   0  0  0  0  0  0  0  0  0  0  0  0
   33.3300   48.5160   36.2110 F   0  0  0  0  0  0  0  0  0  0  0  0
   35.5370   47.1190   35.4390 F   0  0  0  0  0  0  0  0  0  0  0  0
   39.1730   51.7950   34.6980 N   0  0  0  0  0  0  0  0  0  0  0  0
   39.8660   52.5210   34.8850 H   0  0  0  0  0  0  0  0  0  0  0  0
   38.2360   52.1780   34.8250 H   0  0  0  0  0  0  0  0  0  0  0  0
   41.9600   51.0070   35.1150 C   0  0  0  0  0  0  0  0  0  0  0  0
   41.9410   50.4700   33.9920 O   0  0  0  0  0  0  0  0  0  0  0  0
   43.0170   51.8640   35.5840 N   0  0  0  0  0  0  0  0  0  0  0  0
   43.9560   51.0690   36.5410 C   0  0  0  0  0  2  0  0  0  0  0  0
   43.6150   52.5450   34.4120 C   0  0  0  0  0  2  0  0  0  0  0  0
   45.4710   51.3040   36.3650 C   0  0  0  0  0  0  0  0  0  0  0  0
   45.0030   52.1030   33.9900 C   0  0  0  0  0  2  0  0  0  0  0  0
   45.8830   51.7860   35.1530 N   0  0  0  0  0  0  0  0  0  0  0  0
   46.5070   51.1260   37.1750 N   0  0  0  0  0  0  0  0  0  0  0  0
   47.2190   51.8660   35.3080 C   0  0  0  0  0  0  0  0  0  0  0  0
   47.5500   51.4600   36.5480 N   0  0  0  0  0  0  0  0  0  0  0  0
   48.2350   52.3400   34.2640 C   0  0  0  0  0  0  0  0  0  0  0  0
   48.0860   51.5600   33.2000 F   0  0  0  0  0  0  0  0  0  0  0  0
   47.9650   53.5850   33.9780 F   0  0  0  0  0  0  0  0  0  0  0  0
   49.4710   52.2440   34.7690 F   0  0  0  0  0  0  0  0  0  0  0  0
  2  1  1  1  0  0  0
  2  3  1  0  0  0  0
  4  3  1  0  0  0  0
  4  6  1  0  0  0  0
  5  6  2  0  0  0  0
  6 10  1  0  0  0  0
  7  5  1  0  0  0  0
  8  9  1  0  0  0  0
  8  7  2  0  0  0  0
  9  4  2  0  0  0  0
 11  7  1  0  0  0  0
 12  8  1  0  0  0  0
 13 15  1  0  0  0  0
 13 14  1  0  0  0  0
 13  2  1  0  0  0  0
 16 18  1  0  0  0  0
 16  1  1  0  0  0  0
 17 16  2  0  0  0  0
 18 19  1  0  0  0  0
 20 18  1  0  0  0  0
 21 19  1  0  0  0  0
 21 24  2  0  0  0  0
 22 20  1  0  0  0  0
 22 23  1  0  0  0  0
 23 25  1  0  0  0  0
 23 21  1  0  0  0  0
 25 26  2  0  0  0  0
 26 24  1  0  0  0  0
 27 30  1  0  0  0  0
 27 25  1  0  0  0  0
 28 27  1  0  0  0  0
 29 27  1  0  0  0  0
M  END
>  <MODEL>
1

>  <REMARK>
 VINA RESULT:    -9.051      0.000      0.000
 INTER + INTRA:         -13.297
 INTER:                 -12.490
 INTRA:                  -0.807
 UNBOUND:                -0.807
 SMILES N[C@@H](CC(=O)N1CCn2c(nnc2C(F)(F)F)C1)Cc1cc(F)c(F)cc1F
 SMILES IDX 3 1 2 2 19 3 20 4 26 5 27 6 24 7 22 8 21 9 28 10 25 11 23 12
 SMILES IDX 1 13 4 16 5 17 6 18 18 19 7 20 10 21 8 22 9 23 11 24 13 25
 SMILES IDX 12 26 14 27 16 28 15 29 17 30
 H PARENT 1 14 1 15

>  <TORSDO>
F 7

$$$$
